Circuit: * C:\Users\Public\Documents\LTSpice\power_circuit.asc

Instance "m:m1:2": Length shorter than recommended for a level 1 MOSFET.
Direct Newton iteration for .op point succeeded.

Date: Mon Mar 07 16:30:25 2016
Total elapsed time: 0.186 seconds.

tnom = 27
temp = 27
method = modified trap
totiter = 2588
traniter = 2561
tranpoints = 1266
accept = 1231
rejected = 35
matrix size = 13
fillins = 2
solver = Normal
Matrix Compiler1: 1.02 KB object code size  0.8/0.4/[0.3]
Matrix Compiler2: off  [0.4]/0.6/0.6


